Metadata-Version: 2.1
Name: geoschem-gcpy
Version: 1.3.0
Home-page: https://github.com/geoschem/gcpy
Author: GEOS-Chem Support Team
Author-email: geos-chem-support@g.harvard.edu
Maintainer: GEOS-Chem Support Team
Maintainer-email: geos-chem-support@g.harvard.edu
License: MIT
Classifier: Development Status :: 5 - Production/Stable
Classifier: License :: OSI Approved :: MIT License
Classifier: Operating System :: OS Independent
Classifier: Intended Audience :: Science/Research
Classifier: Programming Language :: Python
Classifier: Programming Language :: Python :: 3.9
Classifier: Topic :: Scientific/Engineering
License-File: LICENSE.txt
License-File: AUTHORS.txt
Requires-Dist: cartopy (==0.19.0.post1)
Requires-Dist: dask (==2021.7.1)
Requires-Dist: docutils (==0.16)
Requires-Dist: esmf (==8.1.1)
Requires-Dist: esmpy (==8.1.1)
Requires-Dist: h5netcdf (==0.11.0)
Requires-Dist: h5py (==3.3.0)
Requires-Dist: jinja2 (==3.0.3)
Requires-Dist: joblib (==1.0.1)
Requires-Dist: matplotlib (==3.4.2)
Requires-Dist: pandas (==1.3.1)
Requires-Dist: netcdf4 (==1.6.0)
Requires-Dist: netcdf-fortran (==4.5.4)
Requires-Dist: numpy (==1.21.1)
Requires-Dist: pypdf2 (==1.26.0)
Requires-Dist: recommonmark (==0.7.1)
Requires-Dist: requests (==2.26.0)
Requires-Dist: scipy (==1.7.0)
Requires-Dist: sparselt (>=0.1.3)
Requires-Dist: sphinx (==3.5.4)
Requires-Dist: sphinx-autoapi (==1.9.0)
Requires-Dist: sphinx-autobuild (==2021.3.14)
Requires-Dist: sphinxcontrib-bibtex (==2.2.0)
Requires-Dist: sphinx-rtd-theme (==0.5.2)
Requires-Dist: tabulate (==0.8.9)
Requires-Dist: xarray (==0.17.0)
Requires-Dist: xesmf (==0.5.1)

Python toolkit for working with GEOS-Chem output.
