AUTHORS.txt
CHANGELOG.md
LICENSE.txt
MANIFEST.in
README.md
environment.yml
setup.py
benchmark/1mo_benchmark.yml
benchmark/1yr_fullchem_benchmark.yml
benchmark/1yr_tt_benchmark.yml
benchmark/README
benchmark/benchmark_emission_totals.ipynb
benchmark/plot_driver.sh
benchmark/run_benchmark.py
benchmark/modules/run_1yr_fullchem_benchmark.py
benchmark/modules/run_1yr_tt_benchmark.py
benchmark/modules/__pycache__/run_1yr_fullchem_benchmark.cpython-39.pyc
benchmark/modules/__pycache__/run_1yr_tt_benchmark.cpython-39.pyc
docs/Makefile
docs/make.bat
docs/source/About-GCPy.rst
docs/source/Contributing.rst
docs/source/Getting-Started-with-GCPy.rst
docs/source/Guide-to-Useful-Capabilities.rst
docs/source/Plotting.rst
docs/source/Regridding.rst
docs/source/Release_guide.rst
docs/source/Report_Request.rst
docs/source/Single_panel.rst
docs/source/Six_panel.rst
docs/source/Tabling.rst
docs/source/benchmark_plotting.rst
docs/source/bpch_to_nc.rst
docs/source/editing_these_docs.rst
docs/source/index.rst
docs/source/plot_timeseries.rst
docs/source/_static/images/GEOS-Chem_Logo_Light_Background.png
docs/source/_static/images/budget_table.png
docs/source/_static/images/emissions_totals.png
docs/source/_static/images/inventory_totals.png
docs/source/_static/images/mass_table.png
docs/source/_static/images/single_panel_single_level.png
docs/source/_static/images/single_panel_zonal_mean.png
docs/source/_static/images/six_panel_single_level.png
docs/source/_static/images/six_panel_zonal_mean.png
examples/README.txt
examples/bpch_to_nc/bpch2nc.py
examples/bpch_to_nc/bpch_tagco_prodloss_to_nc.py
examples/diagnostics/README.md
examples/diagnostics/compare_diagnostics.ipynb
examples/diagnostics/compare_diags.py
examples/diagnostics/compare_diags.yml
examples/dry-run/download_data.py
examples/dry-run/download_data.yml
examples/plotting/plot_comparisons.py
examples/plotting/plot_single_panel.py
examples/timeseries/README.txt
examples/timeseries/mda8_o3_timeseries.py
examples/timeseries/plot_timeseries.py
examples/working_with_files/#yaml2json.py#
examples/working_with_files/add_blank_var_to_restart_file.py
examples/working_with_files/concatenate_files.py
examples/working_with_files/insert_field_into_restart_file.py
examples/working_with_files/regrid_restart_ll_to_cs.py
examples/working_with_files/yaml2json.json
examples/working_with_files/yaml2json.py
examples/working_with_files/yaml2json.yml
examples/xarray/xarray_overview.ipynb
examples/yaml/.gitignore
examples/yaml/species2wiki.py
gcpy/__init__.py
gcpy/__init__.pyc
gcpy/_version.py
gcpy/_version.pyc
gcpy/aod_species.yml
gcpy/append_grid_corners.py
gcpy/benchmark.py
gcpy/benchmark_categories.yml
gcpy/bpch_to_nc_names.yml
gcpy/budget_ox.py
gcpy/budget_tt.py
gcpy/constants.py
gcpy/date_time.py
gcpy/emission_inventories.yml
gcpy/emission_species.yml
gcpy/file_regrid.py
gcpy/grid.py
gcpy/grid_stretching_transforms.py
gcpy/lumped_species.yml
gcpy/mean_oh_from_logs.py
gcpy/oh_metrics.py
gcpy/plot.py
gcpy/raveller_1D.py
gcpy/regrid.py
gcpy/regrid_restart_file.py
gcpy/species_database.yml
gcpy/ste_flux.py
gcpy/units.py
gcpy/util.py
gcpy/colormaps/WhGrYlRd.txt
geoschem_gcpy.egg-info/PKG-INFO
geoschem_gcpy.egg-info/SOURCES.txt
geoschem_gcpy.egg-info/dependency_links.txt
geoschem_gcpy.egg-info/requires.txt
geoschem_gcpy.egg-info/top_level.txt